6
	Energy:       0.1593839
C         -1.64114        1.11889       -0.05022
C         -0.40366        0.63951        0.05011
H         -2.15239        1.12517       -1.00794
H         -2.15239        1.50868        0.82462
H          0.10759        0.24972       -0.82473
H          0.10759        0.63323        1.00783
