9
	Energy:       0.7643929
C         -0.47247        0.69621        0.00060
C          1.01486        0.53525       -0.03125
C         -1.02754        1.88758        0.23628
H          1.27611       -0.52315       -0.24062
H          1.44636        0.82585        0.94990
H          1.44636        1.17753       -0.82785
H         -1.10870       -0.16723       -0.17021
H         -0.40927        2.76323        0.40950
H         -2.10713        1.99153        0.25684
