11
	Energy:       0.9868812
C         -0.05732        1.34158        0.06577
C          1.22411        0.52694       -0.08247
H          0.98314       -0.53626       -0.29624
H          1.82805        0.58454        0.84818
H          1.82667        0.93100       -0.92305
C         -0.91684        0.81850        1.21263
H         -0.63735        1.28608       -0.88061
H          0.20521        2.40377        0.26063
H         -1.20567       -0.23818        1.02782
H         -1.83980        1.43031        1.29485
H         -0.36076        0.88263        2.17223
